*Heading
** Job name: Job-1 Model name: Model-1
** Generated by: Abaqus/CAE 2020
*Preprint, echo=NO, model=NO, history=NO, contact=NO
**
** PARTS
**
*Part, name=Part-1
*Node
      1,  -16.6599998,    47.142807,           0.
      2,  -16.6599998,   44.1008949,   16.6599998
      3,           0.,    47.142807,   16.6599998
      4,           0.,          50.,           0.
      5,   16.6599998,   44.1008949,   16.6599998
      6,   16.6599998,    47.142807,           0.
      7,   16.6599998,   44.1008949,  -16.6599998
      8,           0.,    47.142807,  -16.6599998
      9,  -16.6599998,   44.1008949,  -16.6599998
     10,  -16.6599998,    47.104847,   1.89147484
     11,  -16.6599998,   46.9910278,   3.77990341
     12,  -16.6599998,   46.8015327,    5.6622448
     13,  -16.6599998,   46.5366631,   7.53546762
     14,  -16.6599998,   46.1968536,   9.39655495
     15,  -16.6599998,   45.7826424,   11.2425089
     16,  -16.6599998,   45.2947044,   13.0703583
     17,  -16.6599998,   44.7338181,   14.8771591
     18,  -14.8771591,   44.7338181,   16.6599998
     19,  -13.0703583,   45.2947044,   16.6599998
     20,  -11.2425089,   45.7826424,   16.6599998
** ... 2429 like lines cut
*Element, type=S4R
 1,   1,  10, 106,  41
 2,  10,  11, 107, 106
 3,  11,  12, 108, 107
 4,  12,  13, 109, 108
 5,  13,  14, 110, 109
 6,  14,  15, 111, 110
 7,  15,  16, 112, 111
 8,  16,  17, 113, 112
 9,  17,   2,  18, 113
10,  41, 106, 114,  40
11, 106, 107, 115, 114
12, 107, 108, 116, 115
13, 108, 109, 117, 116
14, 109, 110, 118, 117
15, 110, 111, 119, 118
16, 111, 112, 120, 119
17, 112, 113, 121, 120
18, 113,  18,  19, 121
19,  40, 114, 122,  39
20, 114, 115, 123, 122
** ... 2392 like lines cut
*Elset, elset="jiaqiang ply", generate
   1,  324,    1
*Elset, elset="CMShell__0 degree", generate
    1,  2412,     1
*Elset, elset="CMShell__90 degree", generate
    1,  2412,     1
*Elset, elset=CMShell__jiqiang, generate
   1,  324,    1
*Orientation, name=Ori-CMShell__Orientation, system=RECTANGULAR
CMShell__Orientation
3, 0.
** Region: (CMShell-2: Generated From Layup)
*Elset, elset=CMShell-2, generate
   1,  324,    1
** Section: CMShell-2
*Shell Section, elset=CMShell-2, composite, orientation=Ori-CMShell__Orientation, offset=-0.5, layup=CMShell
"CMShell__0 degree_Thickness", 3, ply, 0., "ply_0 degree"
"CMShell__90 degree_Thickness", 3, ply, "CMShell__90 degree_Rotation", "ply_90 degree"
CMShell__jiqiang_Thickness, 3, ply, CMShell__jiqiang_Rotation, jiqiang
"CMShell__90 degree_Thickness", 3, ply, "CMShell__90 degree_Rotation", "ply_90 degree_2"
"CMShell__0 degree_Thickness", 3, ply, 0., "ply_0 degree_2"
** Region: (CMShell-1: Generated From Layup)
*Elset, elset=CMShell-1, generate
  325,  2412,     1
** Section: CMShell-1
*Shell Section, elset=CMShell-1, composite, orientation=Ori-CMShell__Orientation, offset=-0.5, layup=CMShell
"CMShell__0 degree_Thickness", 3, ply, 0., "ply_0 degree"
"CMShell__90 degree_Thickness", 3, ply, "CMShell__90 degree_Rotation", "ply_90 degree"
"CMShell__90 degree_Thickness", 3, ply, "CMShell__90 degree_Rotation", "ply_90 degree_2"
"CMShell__0 degree_Thickness", 3, ply, 0., "ply_0 degree_2"
*Distribution, name=CMShell__Orientation, location=ELEMENT, Table=CMShell__Orientation_Table
** Description: Created by Composites Modeler
,           1.,           0.,           0.,           0.,           1.,           0.
1, 0.948938896393927, 0.315459697546132, 0.000387472295208524, -0.00155194170392852, 0.0195492325951733, -0.999807690999568
2, 0.948806766927741, 0.315854110187262, 0.00137844475410039, 0.0100388591006127, 0.063490003762222, -0.997931982015924
3, 0.948523893870792, 0.316701135909842, 0.00167728041958877, -0.00122140391946486, 0.0997595926220179, -0.995010819967479
4, 0.948005992944297, 0.318252472068171,           0., 0.0093584374621699, 0.143078449381901, -0.989667104116701
5, 0.947551562275397, 0.319586506278774, 0.00324065332628256, 0.0031830776971893, 0.180656876916786, -0.983541031599113
6, 0.946764954300159, 0.32191327618173, 0.00282204304767882, 0.000653093975027368, 0.219156245350733, -0.975689558000919
7, 0.94616428751493, 0.323604973711795, 0.00727750096899432, 0.00790301100142045, 0.260444394547466, -0.965456503300856
8, 0.94506716612295, 0.32680129897904, 0.00699732105517957, 0.00342478725423424, 0.297559423535505, -0.954697156326278
9, 0.943453479467065, 0.331482864781911, 0.00382654380151481, 0.00754000627377547, 0.336903481682939, -0.94150899747974
10, 0.96016631698126, 0.279428914182653, -0.000354476157379111, -0.00524226420140199, 0.0182861827103334, -0.999819050722643
11, 0.960045196238997, 0.279844970592861, -0.000116671792806715, 0.0044432776302239, 0.0606892839617964, -0.998146816904259
12, 0.959805616387225, 0.280665599344678,           0., -0.00084640716398184, 0.0986442924104973, -0.99512239808465
13, 0.959445831074142, 0.281893028166005, 0.000133812741242183, -0.00609140963500487, 0.136463367837054, -0.990626389698572
14, 0.958963358320013, 0.283529872221882, 0.000298257347441128, 0.00358169105791906, 0.178362198418861, -0.983958382079423
15, 0.958365984635677, 0.28554183686156, 0.000706325007314226, -0.00704437140754778, 0.214162589880771, -0.976772625500445
16, 0.957647097473226, 0.287941801419592, 0.00124727556957138, 0.00282340636136703, 0.255461077680469, -0.966815218212277
17, 0.956811740130039, 0.290701210702015, 0.00202485696044873, -0.002297158680624, 0.292118985668089, -0.956379224614506
18, 0.955858459367741, 0.293811685877373, 0.0030494092909495, -0.0129273188565868, 0.326814413519929, -0.945000118276609
19, 0.970026268487279, 0.242997731237448, -0.00106820321000839, -0.00523685434045202, 0.0182822095264346, -0.999819151732676
20, 0.969915466373343, 0.243436619337033, -0.00161259279924409, -0.00904813641529997, 0.0564701495092117, -0.998363287306688
** ... 2392 like lines cut
*Distribution, name="CMShell__0 degree_Thickness", location=ELEMENT, Table="CMShell__0 degree_Thickness_Table"
** Description: Created by Composites Modeler
,   0.15
1, 0.150001
2, 0.15006
3, 0.150062
4, 0.150223
5, 0.150249
6, 0.150352
7, 0.150541
8, 0.150664
9, 0.151005
10,   0.15
11, 0.150034
12, 0.150054
13, 0.150079
14, 0.150217
15, 0.150217
16, 0.150424
17, 0.150492
18, 0.150492
19,   0.15
20, 0.150003
** ... 2392 like lines cut
*Distribution, name="CMShell__90 degree_Thickness", location=ELEMENT, Table="CMShell__90 degree_Thickness_Table"
** Description: Created by Composites Modeler
,   0.15
1, 0.150001
2, 0.15006
3, 0.150062
4, 0.150223
5, 0.150249
6, 0.150352
7, 0.150541
8, 0.150664
9, 0.151005
10,   0.15
11, 0.150034
12, 0.150054
13, 0.150079
14, 0.150217
15, 0.150217
16, 0.150424
17, 0.150492
18, 0.150492
19,   0.15
20, 0.150003
** ... 2392 like lines cut
*Distribution, name="CMShell__90 degree_Rotation", location=ELEMENT, Table="CMShell__90 degree_Rotation_Table"
** Description: Created by Composites Modeler
,     0.
1, 89.7532
2, 88.3838
3, 88.3515
4, 86.8791
5,   86.7
6, 86.0771
7, 85.1394
8, 84.6178
9, 83.3854
10, 89.9753
11, 88.7757
12, 88.4606
13, 88.138
14, 86.921
15, 86.9211
16, 85.6956
17, 85.3664
18, 85.3665
19, 89.9753
20, 89.6229
** ... 2392 like lines cut
*Distribution, name=CMShell__jiqiang_Thickness, location=ELEMENT, Table=CMShell__jiqiang_Thickness_Table
** Description: Created by Composites Modeler
,   0.15
1, 0.150154
2, 0.150152
3, 0.150136
4, 0.150111
5, 0.150081
6, 0.150051
7, 0.150032
8, 0.150006
9,   0.15
10, 0.150112
11, 0.150101
12, 0.15009
13, 0.150069
14, 0.150045
15, 0.150028
16, 0.150007
17,   0.15
18, 0.150003
19, 0.150063
20, 0.150057
** ... 304 like lines cut
*Distribution, name=CMShell__jiqiang_Rotation, location=ELEMENT, Table=CMShell__jiqiang_Rotation_Table
** Description: Created by Composites Modeler
,     0.
1, 43.582
2, 43.2068
3, 42.9576
4, 42.6368
5, 42.5944
6, 42.3784
7, 42.4144
8, 42.2588
9, 41.9588
10, 43.7561
11, 43.4721
12, 43.2334
13, 43.0496
14, 42.9033
15, 42.7794
16, 42.6865
17, 42.6319
18, 42.6409
19, 43.9542
20, 43.7333
** ... 304 like lines cut
*End Part
**  
**
** ASSEMBLY
**
*Assembly, name=Assembly
**  
*Instance, name=Part-1-1, part=Part-1
*End Instance
**  
*Nset, nset=Set-fixed, instance=Part-1-1
  370,  371,  400,  401,  402,  403,  404,  405,  406,  407,  654,  655,  656,  657,  658,  659
  660,  661,  664,  665,  704,  705,  706,  707,  708,  709,  710,  711, 1174, 1175, 1176, 1177
 1184, 1185, 1230, 1231, 1232, 1233, 1234, 1235, 1236, 1237, 1244, 1245, 1246, 1247, 1700, 1701
 1708, 1709, 1710, 1711, 1712, 1713, 1748, 1749, 1750, 1751, 1752, 1753, 1754, 1755, 1766, 1767
 2218, 2219, 2220, 2221, 2222, 2223, 2224, 2225
*Elset, elset=Set-fixed, instance=Part-1-1
  353,  382,  411,  440,  469,  498,  527,  556,  585,  586,  615,  644,  673,  702,  731,  760
  789,  818,  875,  904,  933,  962,  991, 1020, 1049, 1078, 1107, 1136, 1165, 1194, 1223, 1252
 1281, 1310, 1339, 1368, 1369, 1398, 1427, 1456, 1485, 1514, 1543, 1572, 1601, 1658, 1687, 1716
 1745, 1774, 1803, 1832, 1861, 1890, 1891, 1920, 1949, 1978, 2007, 2036, 2065, 2094, 2123, 2152
 2181, 2210, 2239, 2268, 2297, 2326, 2355, 2384
*Elset, elset=_Surf-1_SPOS, internal, instance=Part-1-1, generate
    1,  2412,     1
*Surface, type=ELEMENT, name=Surf-1
_Surf-1_SPOS, SPOS
*End Assembly
** 
** MATERIALS
** 
*Material, name=ply
*Density
 1.6e-09,
*Elastic, type=LAMINA
155600.,8200., 0.34,4500.,4500.,2500.
*Distribution Table, name=CMShell__Orientation_Table
coord3d, coord3d
*Distribution Table, name="CMShell__0 degree_Thickness_Table"
length
*Distribution Table, name="CMShell__90 degree_Thickness_Table"
length
*Distribution Table, name="CMShell__90 degree_Rotation_Table"
angle
*Distribution Table, name=CMShell__jiqiang_Thickness_Table
length
*Distribution Table, name=CMShell__jiqiang_Rotation_Table
angle
** ----------------------------------------------------------------
** 
** STEP: Step-1
** 
*Step, name=Step-1, nlgeom=NO
*Static
0.1, 1., 1e-05, 0.1
** 
** BOUNDARY CONDITIONS
** 
** Name: fixed Type: Symmetry/Antisymmetry/Encastre
*Boundary
Set-fixed, ENCASTRE
** 
** LOADS
** 
** Name: Load-1   Type: Pressure
*Dsload
Surf-1, P, 10.
** 
** OUTPUT REQUESTS
** 
*Restart, write, frequency=0
** 
** FIELD OUTPUT: F-Output-2
** 
*Output, field
*Element Output, elset=Part-1-1.CMShell-1, directions=YES
1, 2, 3, 4, 5, 6, 7, 8, 9, 10, 11, 12
DAMAGEC, E, HSNFCCRT, HSNFTCRT, HSNMCCRT, HSNMTCRT, MISES, S
** 
** FIELD OUTPUT: F-Output-2
** 
*Element Output, elset=Part-1-1.CMShell-2, directions=YES
1, 2, 3, 4, 5, 6, 7, 8, 9, 10, 11, 12, 13, 14, 15
DAMAGEC, E, HSNFCCRT, HSNFTCRT, HSNMCCRT, HSNMTCRT, MISES, S
** 
** FIELD OUTPUT: F-Output-1
** 
*Output, field, variable=PRESELECT
** 
** HISTORY OUTPUT: H-Output-1
** 
*Output, history, variable=PRESELECT
*End Step
